74
Coordinates from ORCA-job dut49_mol_again.input
  C   3.55377490981366      0.07605960677148     -0.01120834197514
  C   2.85208261821504      0.54945399770012     -1.12530273218904
  C   2.85846117340029     -0.39761362443059      1.10679755492309
  C   1.45787956543528      0.55022427012999     -1.11695069620308
  C   1.46426055159595     -0.39860066159094      1.10631505767034
  C   0.74319338101858      0.07580489623437     -0.00325023385541
  C   -0.74017661649140      0.07594245685805      0.00117935254119
  C   -1.45471265438804      0.54406082837324      1.11762458426442
  C   -1.46139135099030     -0.39204197444315     -1.11099283631821
  C   -2.84892598975844      0.54338791399502      1.12610248537067
  C   -2.85562170222902     -0.39101570695617     -1.11125045708220
  C   -3.55076047547538      0.07631539150616      0.00948059070161
  C   8.78285343332751     -4.07317715937545      0.03499587096987
  C   8.77822067118477      4.23065494593078     -0.07370921486938
  C   -8.77905387806721     -4.07373525082299     -0.03714771778841
  C   -8.77574116734275      4.23008151434349      0.07702417501196
  C   -6.41782607536244     -3.35304458398775     -0.05921057076554
  C   -5.40396417415684     -2.40435716764887     -0.05186578539748
  C   -7.77998500388961     -2.97687772276585     -0.03917467163275
  C   6.42147912884358     -3.35295868492872      0.05535505546557
  C   -5.78199103812080     -1.05676306920482     -0.02539921512311
  C   7.78356953535640     -2.97650498147910      0.03681191461316
  C   5.40743305910743     -2.40447440217219      0.04809086276490
  C   -8.14916098860903     -1.62415386086128     -0.01249634427165
  C   -7.14657061321080     -0.65026476539427     -0.00473995153894
  C   -5.78101058399849      1.21086222561278      0.05508558285143
  C   -7.14595373903108      0.80538484214016      0.03900492800978
  C   8.15246790082305     -1.62368315129643      0.01147057139388
  C   -5.40188363891400      2.55816558747944      0.08048965899464
  C   5.78516185939556     -1.05675139128527      0.02324527089831
  C   -8.14777804663775      1.78002975960328      0.05002792035754
  C   7.14967516817444     -0.64999075614311      0.00373997730576
  C   -6.41500103892193      3.50761361233906      0.09128280720355
  C   -7.77749837792139      3.13247351098769      0.07561892432662
  C   7.14884203691656      0.80569796874668     -0.03878663496507
  C   5.78385386086532      1.21098927925589     -0.05510834350808
  C   8.15055737689676      1.78047718872317     -0.04863907336468
  C   5.40460936913470      2.55829438232331     -0.07923024697448
  C   7.78013581835001      3.13289847104607     -0.07322796741956
  C   6.41760537368003      3.50787425675834     -0.08880974823753
  H   3.40580739783302      0.91741223385195     -1.99045070302128
  H   3.41712752570397     -0.76529337296300      1.96887528711502
  H   0.91358856666017      0.93938959509768     -1.97921249614716
  H   -0.91029089974630      0.92834522779664      1.98199793195834
  H   -3.40258991122192      0.90654134918657      1.99332202190060
  H   -3.41449306199368     -0.75398795254371     -1.97519414504897
  H   -6.18557059417827     -4.41824041341436     -0.07644353086327
  H   -4.35353236601201     -2.69723694442647     -0.06126262288144
  H   6.18941587588747     -4.41821378225922      0.07143181271510
  H   4.35708846746833     -2.69766302665414      0.05635040164853
  H   -9.20357684190804     -1.34768388806019      0.00818261082666
  H   -4.35120951880943      2.85025849002248      0.08648240599471
  H   9.20684172503021     -1.34697514214163     -0.00814276445390
  H   -9.20246325103023      1.50435425323972      0.03278306692986
  H   -6.18188979592687      4.57263144182425      0.10790610862808
  H   9.20526979858777      1.50490975839115     -0.03132588878340
  H   4.35393317699970      2.85034698125860     -0.08511314881300
  H   6.18435332816684      4.57287642683838     -0.10441833879685
  N   -4.97313933290282      0.07674238767621      0.01351771341873
  N   4.97609812193331      0.07668551760437     -0.01493216806015
  O   10.06743228934096     -3.62967197133458      0.00284471097332
  O   10.06328690086360      3.78858820939983     -0.04134914705901
  O   8.51140407861222     -5.25779583297281      0.05688244166514
  O   8.50541533953734      5.41498994938130     -0.09397791373577
  O   -8.50741230360996     -5.25828369733535     -0.06033733550289
  O   -10.06079547217636      3.78782916385258      0.04638408849072
  O   -10.06367913794382     -3.63052065112144     -0.00256374333845
  O   -8.50315911835700      5.41440839055560      0.10052159999484
  H   10.61661492335791     -4.43376395406376      0.00358938338692
  H   10.61157369064246      4.59329088898767     -0.04219781931696
  H   -10.60921724838044      4.59243333047667      0.04959410324533
  H   -10.61268839540880     -4.43473023588394     -0.00331861230329
  H   -0.92227413329050     -0.77647992940729     -1.97861614954044
  H   0.92489070195296     -0.78769622673138      1.97169647661580
